Circuit: * Z:\home\hazen\work\smart-glass-driver\Draft1.asc


Date: Tue Mar 31 12:12:53 2026
Total elapsed time: 0.090 seconds.

tnom = 27
temp = 27
method = trap
totiter = 0
traniter = 0
tranpoints = 0
accept = 0
rejected = 0
matrix size = 3
fillins = 0
solver = Normal

